Info: SIMULATION PARAMETERS:
Info: TIMESTEP               2
Info: NUMBER OF STEPS        0
Info: STEPS PER CYCLE        10
Info: PERIODIC CELL BASIS 1  42 0 0
Info: PERIODIC CELL BASIS 2  0 44 0
Info: PERIODIC CELL BASIS 3  0 0 47
Info: PERIODIC CELL CENTER   30.8 29 17.7
Info: WRAPPING ALL CLUSTERS AROUND PERIODIC BOUNDARIES ON OUTPUT.
Info: FIRST LDB TIMESTEP     50
Info: LAST LDB TIMESTEP     -1
Info: HOM BACKGROUND SCALING 1
Info: PME BACKGROUND SCALING 1
Info: MIN ATOMS PER PATCH    40
Info: INITIAL TEMPERATURE    310
Info: CENTER OF MASS MOVING INITIALLY? NO
Info: DIELECTRIC             1
Info: EXCLUDE                SCALED ONE-FOUR
Info: 1-4 ELECTROSTATICS SCALED BY 1
Info: MODIFIED 1-4 VDW PARAMETERS WILL BE USED
Info: DCD FILENAME           output_files/ubq_wb_eq.dcd
Info: DCD FREQUENCY          250
Info: DCD FIRST STEP         250
Info: DCD FILE WILL CONTAIN UNIT CELL DATA
Info: XST FILENAME           output_files/ubq_wb_eq.xst
Info: XST FREQUENCY          250
Info: NO VELOCITY DCD OUTPUT
Info: NO FORCE DCD OUTPUT
Info: OUTPUT FILENAME        output_files/ubq_wb_eq
Info: BINARY OUTPUT FILES WILL BE USED
Info: RESTART FILENAME       output_files/ubq_wb_eq.restart
Info: RESTART FREQUENCY      500
Info: BINARY RESTART FILES WILL BE USED
Info: SWITCHING ACTIVE
Info: SWITCHING ON           10
Info: SWITCHING OFF          12
Info: PAIRLIST DISTANCE      14
Info: PAIRLIST SHRINK RATE   0.01
Info: PAIRLIST GROW RATE     0.01
Info: PAIRLIST TRIGGER       0.3
Info: PAIRLISTS PER CYCLE    2
Info: PAIRLISTS ENABLED
Info: MARGIN                 0.495
Info: HYDROGEN GROUP CUTOFF  2.5
Info: PATCH DIMENSION        16.995
Info: ENERGY OUTPUT STEPS    100
Info: CROSSTERM ENERGY INCLUDED IN DIHEDRAL
Info: TIMING OUTPUT STEPS    1000
Info: PRESSURE OUTPUT STEPS  100
Info: LANGEVIN DYNAMICS ACTIVE
Info: LANGEVIN TEMPERATURE   310
Info: LANGEVIN USING BBK INTEGRATOR
Info: LANGEVIN DAMPING COEFFICIENT IS 1 INVERSE PS
Info: LANGEVIN DYNAMICS NOT APPLIED TO HYDROGENS
Info: LANGEVIN PISTON PRESSURE CONTROL ACTIVE
Info:        TARGET PRESSURE IS 1.01325 BAR
Info:     OSCILLATION PERIOD IS 100 FS
Info:             DECAY TIME IS 50 FS
Info:     PISTON TEMPERATURE IS 310 K
Info:       PRESSURE CONTROL IS GROUP-BASED
Info:    INITIAL STRAIN RATE IS 0 0 0
Info:       CELL FLUCTUATION IS ISOTROPIC
Info: PARTICLE MESH EWALD (PME) ACTIVE
Info: PME TOLERANCE               1e-06
Info: PME EWALD COEFFICIENT       0.257952
Info: PME INTERPOLATION ORDER     4
Info: PME GRID DIMENSIONS         44 44 48
Info: PME MAXIMUM GRID SPACING    1
Info: FULL ELECTROSTATIC EVALUATION FREQUENCY      2
Info: USING VERLET I (r-RESPA) MTS SCHEME.
Info: C1 SPLITTING OF LONG RANGE ELECTROSTATICS
Info: PLACING ATOMS IN PATCHES BY HYDROGEN GROUPS
Info: RIGID BONDS TO HYDROGEN : ALL
Info:         ERROR TOLERANCE : 1e-08
Info:          MAX ITERATIONS : 100
Info: RIGID WATER USING SETTLE ALGORITHM
Info: RANDOM NUMBER SEED     1598045698
Info: USE HYDROGEN BONDS?    NO
Info: COORDINATE PDB         generated_files/ubq_wb.pdb
Info: STRUCTURE FILE         generated_files/ubq_wb.psf
Info: PARAMETER file: CHARMM format!
Info: PARAMETERS             general_info/par_all27_prot_lipid.inp
Info: USING ARITHMETIC MEAN TO COMBINE L-J SIGMA PARAMETERS
Info: SUMMARY OF PARAMETERS:
Info: 180 BONDS
Info: 447 ANGLES
Info: 566 DIHEDRAL
Info: 46 IMPROPER
Info: 6 CROSSTERM
Info: 119 VDW
Info: 0 VDW_PAIRS
Info: 0 NBTHOLE_PAIRS
Info: STRUCTURE SUMMARY:
Info: 7051 ATOMS
Info: 5117 BONDS
Info: 4197 ANGLES
Info: 3293 DIHEDRALS
Info: 204 IMPROPERS
Info: 74 CROSSTERMS
Info: 0 EXCLUSIONS
Info: 6449 RIGID BONDS
Info: 14704 DEGREES OF FREEDOM
Info: 2542 HYDROGEN GROUPS
Info: 4 ATOMS IN LARGEST HYDROGEN GROUP
Info: 2542 MIGRATION GROUPS
Info: 4 ATOMS IN LARGEST MIGRATION GROUP
Info: TOTAL MASS = 43514.7 amu
Info: TOTAL CHARGE = 1.00955e-06 e
Info: MASS DENSITY = 0.831947 g/cm^3
Info: ATOM DENSITY = 0.0811803 atoms/A^3
Info: ADDED 12578 IMPLICIT EXCLUSIONS
Info: NONBONDED TABLE R-SQUARED SPACING: 0.0625
Info: NONBONDED TABLE SIZE: 769 POINTS
Info: REMOVING COM VELOCITY 0.115303 0.0792509 -0.131186
Info: Updated CUDA force table with 4096 elements.
Info: Updated CUDA LJ table with 119 x 119 elements.
Info: Found 213 unique exclusion lists needing 616 bytes
TCL: Minimizing for 100 steps
ETITLE: TS BOND ANGLE DIHED IMPRP ELECT VDW BOUNDARY MISC KINETIC TOTAL TEMP POTENTIAL TOTAL3 TEMPAVG PRESSURE GPRESSURE VOLUME PRESSAVG GPRESSAVG
ENERGY: 0 263.6136 847.5818 263.7655 10.7299 -18255.4917 2422.2700 0.0000 0.0000 0.0000 -14447.5309 0.0000 -14447.5309 -14447.5309 0.0000 -210.3625 -20790.4593 86856.0000 -210.3625 -20790.4593
ENERGY: 20 98.0280 394.4829 264.5962 10.4299 -19266.1071 1021.9400 0.0000 0.0000 0.0000 -17476.6301 0.0000 -17476.6301 -17476.6301 0.0000 -186.2439 -12024.4303 86856.0000 -186.2439 -12024.4303
ENERGY: 40 110.3449 310.1359 277.6774 51.5264 -20019.3189 883.3862 0.0000 0.0000 0.0000 -18386.2480 0.0000 -18386.2480 -18386.2480 0.0000 -166.6333 -12352.3842 86856.0000 -166.6333 -12352.3842
ENERGY: 60 73.4110 239.1375 265.9246 11.5751 -20756.2719 790.2684 0.0000 0.0000 0.0000 -19375.9553 0.0000 -19375.9553 -19375.9553 0.0000 -145.8745 -12774.6767 86856.0000 -145.8745 -12774.6767
ENERGY: 80 89.7401 239.3379 265.4773 13.5319 -21320.7458 733.9624 0.0000 0.0000 0.0000 -19978.6961 0.0000 -19978.6961 -19978.6961 0.0000 -127.9183 -13130.5775 86856.0000 -127.9183 -13130.5775
ENERGY: 100 90.8187 228.8807 262.0676 10.5337 -21900.1953 756.5488 0.0000 0.0000 0.0000 -20551.3458 0.0000 -20551.3458 -20551.3458 0.0000 -111.3676 -13447.3922 86856.0000 -111.3676 -13447.3922
TCL: Running for 2500 steps
ETITLE: TS BOND ANGLE DIHED IMPRP ELECT VDW BOUNDARY MISC KINETIC TOTAL TEMP POTENTIAL TOTAL3 TEMPAVG PRESSURE GPRESSURE VOLUME PRESSAVG GPRESSAVG
ENERGY: 100 90.8187 228.8807 262.0676 10.5337 -21900.1953 756.5488 0.0000 0.0000 4471.6428 -16079.7030 306.0709 -20551.3458 -16088.4770 306.0709 -4168.5531 -4136.0489 86856.0000 -4168.5531 -4136.0489
ENERGY: 600 190.7921 583.7924 319.1063 33.5742 -23448.4245 1519.9300 0.0000 0.0000 4656.4724 -16144.7569 318.7219 -20801.2294 -16130.2589 313.4341 122.2234 146.7065 71593.3550 3.9407 3.7586
ENERGY: 1100 218.3299 647.4435 313.1398 46.5076 -23756.5047 1569.7705 0.0000 0.0000 4644.8358 -16316.4774 317.9254 -20961.3132 -16296.0566 315.3341 83.9159 96.5357 69922.7407 0.6118 -0.0803
ENERGY: 1600 235.8165 693.1494 302.7666 40.7255 -23905.1620 1578.8980 0.0000 0.0000 4624.5078 -16429.2983 316.5340 -21053.8061 -16412.5943 312.3533 -295.6857 -269.7001 69580.7545 76.8002 76.1603
ENERGY: 2100 222.8238 725.2419 308.7229 45.8115 -23980.7915 1599.2242 0.0000 0.0000 4510.7060 -16568.2612 308.7446 -21078.9672 -16551.1940 313.0949 432.7583 446.3801 69183.4850 28.5792 29.1316
ENERGY: 2600 227.3998 705.4560 294.8291 36.6377 -23943.4619 1583.5172 0.0000 0.0000 4530.4559 -16565.1661 310.0965 -21095.6220 -16546.8006 312.8585 523.5161 525.5653 69155.7661 64.1409 64.0144
